*SPEF "IEEE 1481-1998"
*DESIGN "aes_cipher_top"
*DATE "Thu May  4 13:20:22 2023"
*VENDOR "Cadence Design Systems, Inc."
*PROGRAM "Innovus"
*VERSION "19.10-p002_1"
*DESIGN_FLOW "COUPLING C" "PIN_CAP NONE" "NAME_SCOPE LOCAL"
*DIVIDER /
*DELIMITER :
*BUS_DELIMITER []
*T_UNIT 1 NS
*C_UNIT 1 PF
*R_UNIT 1 OHM
*L_UNIT 1 HENRY

// MMMC spef file for corner 'max'

*NAME_MAP

*1 FE_OFN0_text_out_80
*2 key[77]
*3 u0\/r0\/rcnt\[0\]
*4 CTS_ccl_a_inv_00118
*5 clk
*6 us33\/_1272_
*7 us33\/_1270_

*PORTS
*5 I *C 772.08 0.242

*D_NET *5 0.0850149

*CONN
*I *4:A I *C 568.86 417.455 *L 0.0377 *D sky130_fd_sc_hd__clkinv_16
*P *5 O *C 772.08 0.242 *L 0

*CAP
1 *4:A 0.000133038
2 *5 0.000429869
3 *5:2 0.00479662
4 *5:3 0.00612062
5 *5:4 0.0113707
6 *5:5 0.00124121
7 *5:6 0.00656259
8 *5:7 0.00926495
9 *5:8 0.00922298
10 *5:9 0.00963318
11 *5:10 0.00970566
12 *5:11 0.0089975
13 *5:12 0.00466192
14 *5:11 *2:2 0.000318974
15 *5:10 *6:A 0.000318974

*RES
1 *5:12 *5 12.1287
2 *5:11 *5:12 84.2451
3 *5:10 *5:11 84.2451
4 *5:9 *5:10 84.4184
5 *5:8 *5:9 84.2451
6 *5:7 *5:8 84.4183
7 *5:6 *5:5 22.4382
8 *5:4 *5:6 114.035
9 *5:3 *5:4 113.923
10 *4:A *5:3 9.82237
11 *5:2 *5:7 83.9604
12 *5:5 *5:2 4.88031
*END

*D_NET *2 0.00164998

*CONN
*I *6:A I *C 656.24 763.025 *L 0.00231 *D sky130_fd_sc_hd__nand2_1
*I *7:Y O *C 663.06 759.435 *L 0 *D sky130_fd_sc_hd__nand2_1

*CAP
1 *7:Y 6.30617e-05
2 *6:A 0.000761926
3 *2:2 0.000824988
4 *2:2 *5:11 000318974
5 *6:A *5:10 0.000318974

*RES
1 *6:A *2:2 323.12
2 *2:2 *7:Y 65.7113
*END
